Error opening osdi lib "/foss/pdks/sky130A/libs.tech/ngspice/osdi/psp103.osdi": No such file or directory!
Error: Library /foss/pdks/sky130A/libs.tech/ngspice/osdi/psp103.osdi couldn't be loaded!
Error opening osdi lib "/foss/pdks/sky130A/libs.tech/ngspice/osdi/psp103_nqs.osdi": No such file or directory!
Error: Library /foss/pdks/sky130A/libs.tech/ngspice/osdi/psp103_nqs.osdi couldn't be loaded!
Error opening osdi lib "/foss/pdks/sky130A/libs.tech/ngspice/osdi/r3_cmc.osdi": No such file or directory!
Error: Library /foss/pdks/sky130A/libs.tech/ngspice/osdi/r3_cmc.osdi couldn't be loaded!
Error opening osdi lib "/foss/pdks/sky130A/libs.tech/ngspice/osdi/mosvar.osdi": No such file or directory!
Error: Library /foss/pdks/sky130A/libs.tech/ngspice/osdi/mosvar.osdi couldn't be loaded!
Warning: OSDI libs have not been loaded successfully.
    Any of the following steps may fail, if Verilog A models are involved!.


Note: No compatibility mode selected!


Circuit: ** sch_path: /foss/designs/tt/0_submit/0_tt_um_ik_0_ptat_bgr_rev1/xschem/tt_um_ik_0_ptat_bgr_tb.sch

Warning: Model issue on line 1684 :
  .model x1.x2:nsky130_fd_pr__pnp_05v5_w0p68l0p68ar1x2_model npn level=1 t ...
unrecognized parameter (dcap) - ignored
unrecognized parameter (gap1) - ignored
unrecognized parameter (gap2) - ignored
unrecognized parameter (tsky130_fd_pr__res_generic_m1) - ignored
unrecognized parameter (tsky130_fd_pr__res_generic_m2) - ignored

Warning: Model issue on line 1684 :
  .model x1.x3:nsky130_fd_pr__pnp_05v5_w0p68l0p68ar1x2_model npn level=1 t ...
unrecognized parameter (dcap) - ignored
unrecognized parameter (gap1) - ignored
unrecognized parameter (gap2) - ignored
unrecognized parameter (tsky130_fd_pr__res_generic_m1) - ignored
unrecognized parameter (tsky130_fd_pr__res_generic_m2) - ignored

Warning: Model issue on line 1684 :
  .model x1.x4:nsky130_fd_pr__pnp_05v5_w0p68l0p68ar1x2_model npn level=1 t ...
unrecognized parameter (dcap) - ignored
unrecognized parameter (gap1) - ignored
unrecognized parameter (gap2) - ignored
unrecognized parameter (tsky130_fd_pr__res_generic_m1) - ignored
unrecognized parameter (tsky130_fd_pr__res_generic_m2) - ignored

Warning: Model issue on line 1684 :
  .model x1.x6:nsky130_fd_pr__pnp_05v5_w0p68l0p68ar1x2_model npn level=1 t ...
unrecognized parameter (dcap) - ignored
unrecognized parameter (gap1) - ignored
unrecognized parameter (gap2) - ignored
unrecognized parameter (tsky130_fd_pr__res_generic_m1) - ignored
unrecognized parameter (tsky130_fd_pr__res_generic_m2) - ignored

Warning: Model issue on line 1684 :
  .model x1.x7:nsky130_fd_pr__pnp_05v5_w0p68l0p68ar1x2_model npn level=1 t ...
unrecognized parameter (dcap) - ignored
unrecognized parameter (gap1) - ignored
unrecognized parameter (gap2) - ignored
unrecognized parameter (tsky130_fd_pr__res_generic_m1) - ignored
unrecognized parameter (tsky130_fd_pr__res_generic_m2) - ignored

Warning: Model issue on line 1684 :
  .model x1.x8:nsky130_fd_pr__pnp_05v5_w0p68l0p68ar1x2_model npn level=1 t ...
unrecognized parameter (dcap) - ignored
unrecognized parameter (gap1) - ignored
unrecognized parameter (gap2) - ignored
unrecognized parameter (tsky130_fd_pr__res_generic_m1) - ignored
unrecognized parameter (tsky130_fd_pr__res_generic_m2) - ignored

Warning: Model issue on line 1684 :
  .model x1.x9:nsky130_fd_pr__pnp_05v5_w0p68l0p68ar1x2_model npn level=1 t ...
unrecognized parameter (dcap) - ignored
unrecognized parameter (gap1) - ignored
unrecognized parameter (gap2) - ignored
unrecognized parameter (tsky130_fd_pr__res_generic_m1) - ignored
unrecognized parameter (tsky130_fd_pr__res_generic_m2) - ignored

Warning: Model issue on line 1684 :
  .model x1.x11:nsky130_fd_pr__pnp_05v5_w0p68l0p68ar1x2_model npn level=1  ...
unrecognized parameter (dcap) - ignored
unrecognized parameter (gap1) - ignored
unrecognized parameter (gap2) - ignored
unrecognized parameter (tsky130_fd_pr__res_generic_m1) - ignored
unrecognized parameter (tsky130_fd_pr__res_generic_m2) - ignored

Warning: Model issue on line 1684 :
  .model x1.x12:nsky130_fd_pr__pnp_05v5_w0p68l0p68ar1x2_model npn level=1  ...
unrecognized parameter (dcap) - ignored
unrecognized parameter (gap1) - ignored
unrecognized parameter (gap2) - ignored
unrecognized parameter (tsky130_fd_pr__res_generic_m1) - ignored
unrecognized parameter (tsky130_fd_pr__res_generic_m2) - ignored

Warning: Model issue on line 1684 :
  .model x1.x13:nsky130_fd_pr__pnp_05v5_w0p68l0p68ar1x2_model npn level=1  ...
unrecognized parameter (dcap) - ignored
unrecognized parameter (gap1) - ignored
unrecognized parameter (gap2) - ignored
unrecognized parameter (tsky130_fd_pr__res_generic_m1) - ignored
unrecognized parameter (tsky130_fd_pr__res_generic_m2) - ignored

Warning: Model issue on line 1684 :
  .model x1.x16:nsky130_fd_pr__pnp_05v5_w0p68l0p68ar1x2_model npn level=1  ...
unrecognized parameter (dcap) - ignored
unrecognized parameter (gap1) - ignored
unrecognized parameter (gap2) - ignored
unrecognized parameter (tsky130_fd_pr__res_generic_m1) - ignored
unrecognized parameter (tsky130_fd_pr__res_generic_m2) - ignored

Warning: Model issue on line 1684 :
  .model x1.x17:nsky130_fd_pr__pnp_05v5_w0p68l0p68ar1x2_model npn level=1  ...
unrecognized parameter (dcap) - ignored
unrecognized parameter (gap1) - ignored
unrecognized parameter (gap2) - ignored
unrecognized parameter (tsky130_fd_pr__res_generic_m1) - ignored
unrecognized parameter (tsky130_fd_pr__res_generic_m2) - ignored

Warning: Model issue on line 1684 :
  .model x1.x20:nsky130_fd_pr__pnp_05v5_w0p68l0p68ar1x2_model npn level=1  ...
unrecognized parameter (dcap) - ignored
unrecognized parameter (gap1) - ignored
unrecognized parameter (gap2) - ignored
unrecognized parameter (tsky130_fd_pr__res_generic_m1) - ignored
unrecognized parameter (tsky130_fd_pr__res_generic_m2) - ignored

Warning: Model issue on line 1684 :
  .model x1.x21:nsky130_fd_pr__pnp_05v5_w0p68l0p68ar1x2_model npn level=1  ...
unrecognized parameter (dcap) - ignored
unrecognized parameter (gap1) - ignored
unrecognized parameter (gap2) - ignored
unrecognized parameter (tsky130_fd_pr__res_generic_m1) - ignored
unrecognized parameter (tsky130_fd_pr__res_generic_m2) - ignored

Warning: Model issue on line 1684 :
  .model x1.x23:nsky130_fd_pr__pnp_05v5_w0p68l0p68ar1x2_model npn level=1  ...
unrecognized parameter (dcap) - ignored
unrecognized parameter (gap1) - ignored
unrecognized parameter (gap2) - ignored
unrecognized parameter (tsky130_fd_pr__res_generic_m1) - ignored
unrecognized parameter (tsky130_fd_pr__res_generic_m2) - ignored

Warning: Model issue on line 1684 :
  .model x1.x25:nsky130_fd_pr__pnp_05v5_w0p68l0p68ar1x2_model npn level=1  ...
unrecognized parameter (dcap) - ignored
unrecognized parameter (gap1) - ignored
unrecognized parameter (gap2) - ignored
unrecognized parameter (tsky130_fd_pr__res_generic_m1) - ignored
unrecognized parameter (tsky130_fd_pr__res_generic_m2) - ignored

Warning: Model issue on line 1684 :
  .model x1.x29:nsky130_fd_pr__pnp_05v5_w0p68l0p68ar1x2_model npn level=1  ...
unrecognized parameter (dcap) - ignored
unrecognized parameter (gap1) - ignored
unrecognized parameter (gap2) - ignored
unrecognized parameter (tsky130_fd_pr__res_generic_m1) - ignored
unrecognized parameter (tsky130_fd_pr__res_generic_m2) - ignored

Warning: Model issue on line 1684 :
  .model x1.x37:nsky130_fd_pr__pnp_05v5_w0p68l0p68ar1x2_model npn level=1  ...
unrecognized parameter (dcap) - ignored
unrecognized parameter (gap1) - ignored
unrecognized parameter (gap2) - ignored
unrecognized parameter (tsky130_fd_pr__res_generic_m1) - ignored
unrecognized parameter (tsky130_fd_pr__res_generic_m2) - ignored

Warning: Model issue on line 1684 :
  .model x1.x38:nsky130_fd_pr__pnp_05v5_w0p68l0p68ar1x2_model npn level=1  ...
unrecognized parameter (dcap) - ignored
unrecognized parameter (gap1) - ignored
unrecognized parameter (gap2) - ignored
unrecognized parameter (tsky130_fd_pr__res_generic_m1) - ignored
unrecognized parameter (tsky130_fd_pr__res_generic_m2) - ignored

Warning: Model issue on line 1684 :
  .model x1.x39:nsky130_fd_pr__pnp_05v5_w0p68l0p68ar1x2_model npn level=1  ...
unrecognized parameter (dcap) - ignored
unrecognized parameter (gap1) - ignored
unrecognized parameter (gap2) - ignored
unrecognized parameter (tsky130_fd_pr__res_generic_m1) - ignored
unrecognized parameter (tsky130_fd_pr__res_generic_m2) - ignored

Warning: Model issue on line 1684 :
  .model x1.x41:nsky130_fd_pr__pnp_05v5_w0p68l0p68ar1x2_model npn level=1  ...
unrecognized parameter (dcap) - ignored
unrecognized parameter (gap1) - ignored
unrecognized parameter (gap2) - ignored
unrecognized parameter (tsky130_fd_pr__res_generic_m1) - ignored
unrecognized parameter (tsky130_fd_pr__res_generic_m2) - ignored

Warning: Model issue on line 1684 :
  .model x1.x42:nsky130_fd_pr__pnp_05v5_w0p68l0p68ar1x2_model npn level=1  ...
unrecognized parameter (dcap) - ignored
unrecognized parameter (gap1) - ignored
unrecognized parameter (gap2) - ignored
unrecognized parameter (tsky130_fd_pr__res_generic_m1) - ignored
unrecognized parameter (tsky130_fd_pr__res_generic_m2) - ignored

Warning: Model issue on line 1684 :
  .model x1.x45:nsky130_fd_pr__pnp_05v5_w0p68l0p68ar1x2_model npn level=1  ...
unrecognized parameter (dcap) - ignored
unrecognized parameter (gap1) - ignored
unrecognized parameter (gap2) - ignored
unrecognized parameter (tsky130_fd_pr__res_generic_m1) - ignored
unrecognized parameter (tsky130_fd_pr__res_generic_m2) - ignored

Warning: Model issue on line 1684 :
  .model x1.x47:nsky130_fd_pr__pnp_05v5_w0p68l0p68ar1x2_model npn level=1  ...
unrecognized parameter (dcap) - ignored
unrecognized parameter (gap1) - ignored
unrecognized parameter (gap2) - ignored
unrecognized parameter (tsky130_fd_pr__res_generic_m1) - ignored
unrecognized parameter (tsky130_fd_pr__res_generic_m2) - ignored

Warning: Model issue on line 1684 :
  .model x1.x48:nsky130_fd_pr__pnp_05v5_w0p68l0p68ar1x2_model npn level=1  ...
unrecognized parameter (dcap) - ignored
unrecognized parameter (gap1) - ignored
unrecognized parameter (gap2) - ignored
unrecognized parameter (tsky130_fd_pr__res_generic_m1) - ignored
unrecognized parameter (tsky130_fd_pr__res_generic_m2) - ignored

Warning: singular matrix:  check node net13

Note: Starting dynamic gmin stepping
Warning: singular matrix:  check node net23

Warning: Dynamic gmin stepping failed
Note: Starting true gmin stepping
Warning: singular matrix:  check node net23

Warning: singular matrix:  check node net23

Warning: singular matrix:  check node net23

Warning: singular matrix:  check node net23

Warning: True gmin stepping failed
Note: Starting source stepping
Warning: source stepping failed
Note: Transient op started
Note: Transient op finished successfully
Doing analysis at TEMP = 27.000000 and TNOM = 27.000000

Using SPARSE 1.3 as Direct Linear Solver
 Reference value :  0.00000e+00Warning from checkvalid: vector x1.avdd.n0 is not available or has zero length.
Warning from checkvalid: vector x1.avdd.t10 is not available or has zero length.
Warning from checkvalid: vector x1.nout is not available or has zero length.
Warning from checkvalid: vector x1.startb is not available or has zero length.
Warning from checkvalid: vector x1.c88.n0 is not available or has zero length.
Warning from checkvalid: vector x1.c11.n0 is not available or has zero length.
Warning from checkvalid: vector x1.start_gate.t0 is not available or has zero length.
Error: no such device or model name m.x1.x4.msky130_fd_pr__nfet_01v8

Error: no such function as i,
    or i(@m.x1.x4.msky130_fd_pr__nfet_01v8[id]) is not available.
Error: no such device or model name m.x1.x14.msky130_fd_pr__nfet_01v8

Error: no such function as i,
    or i(@m.x1.x14.msky130_fd_pr__nfet_01v8[id]) is not available.
Error: no such device or model name m.x1.x21.msky130_fd_pr__nfet_01v8

Error: no such function as i,
    or i(@m.x1.x21.msky130_fd_pr__nfet_01v8[id]) is not available.
Note: vsup: dc value used for op instead of transient time=0 value.

No. of Data Rows : 1
binary raw file "tt_10_analog_bgr_ptat_tb.raw"
Doing analysis at TEMP = 27.000000 and TNOM = 27.000000

Using SPARSE 1.3 as Direct Linear Solver

No. of Data Rows : 21
binary raw file "tt_10_analog_bgr_ptat_tb.raw"
Doing analysis at TEMP = 27.000000 and TNOM = 27.000000

Using SPARSE 1.3 as Direct Linear Solver

Initial Transient Solution
--------------------------

Node                                   Voltage
----                                   -------
vdd                                          0
net1                                         0
net2                                         0
x1.x0.x0.t1                       -1.88322e-45
x1.x0.x0.t2                       -1.88322e-45
x1.tt06-analog-bgr-ptat_pex_c_filt_0.nout    -1.88323e-45
x1.x1.x0.t1                       -1.88323e-45
x1.x1.x0.t2                       -1.88323e-45
x1.tt06-analog-bgr-ptat_pex_c_filt_0.c8    -1.30053e-19
x1.tt06-analog-bgr-ptat_pex_c_filt_0.c1    -3.03078e-20
x1.tt06-analog-bgr-ptat_pex_c_filt_0.x66.ne8    -5.12721e-27
x1.x5.x0.t1                                  0
x1.x5.x0.t2                                  0
x1.x10.x0.t1                      -1.88322e-45
x1.x10.x0.t2                      -1.88322e-45
x1.tt06-analog-bgr-ptat_pex_c_filt_0.a     6.08539e-24
x1.x15.x0.t1                                 0
x1.x15.x0.t2                                 0
vref_tt                           -1.88322e-45
x1.x22.x0.t1                      -1.88322e-45
x1.x22.x0.t2                      -1.88322e-45
x1.x24.x0.t1                      -1.88322e-45
x1.x24.x0.t2                      -1.88323e-45
x1.x30.x0.t1                                 0
x1.x30.x0.t2                                 0
x1.x31.x0.t1                      -1.88322e-45
x1.x31.x0.t2                      -1.88322e-45
x1.x34.x0.t1                      -5.10852e-27
x1.x34.x0.t2                      -1.86913e-29
x1.x40.x0.t1                      -1.88322e-45
x1.x40.x0.t2                      -1.88322e-45
x1.x43.x0.t1                      -1.88322e-45
x1.x43.x0.t2                      -1.88322e-45
net15                                        0
net16                                        0
net21                                        0
net20                                        0
net26                                        0
net25                                        0
net24                                        0
net22                                        0
net23                                        0
net30                                        0
net31                                        0
net29                                        0
net28                                        0
net33                                        0
net10                                        0
net13                                        0
net12                                        0
net18                                        0
net17                                        0
net27                                        0
net14                                        0
net32                                        0
net11                                        0
net19                                        0
net3                                         0
net4                                         0
net5                                         0
net6                                         0
net7                                         0
net8                                         0
net9                                         0
vsup#branch                       -2.68349e-31
vdd7#branch                        2.11045e-30
vdd6#branch                        2.68349e-31

 Reference value :  0.00000e+00 Reference value :  4.82800e-08 Reference value :  1.08280e-07 Reference value :  1.61280e-07 Reference value :  2.21280e-07 Reference value :  2.77280e-07 Reference value :  3.46280e-07 Reference value :  4.17280e-07 Reference value :  4.66280e-07 Reference value :  5.28280e-07 Reference value :  5.84280e-07 Reference value :  6.55280e-07 Reference value :  7.13280e-07 Reference value :  7.76280e-07 Reference value :  8.24280e-07 Reference value :  8.80280e-07 Reference value :  9.32500e-07 Reference value :  9.91500e-07 Reference value :  1.05250e-06 Reference value :  1.11150e-06 Reference value :  1.16750e-06 Reference value :  1.22950e-06 Reference value :  1.29350e-06 Reference value :  1.35650e-06 Reference value :  1.41250e-06 Reference value :  1.46750e-06 Reference value :  1.52450e-06 Reference value :  1.58650e-06 Reference value :  1.63850e-06 Reference value :  1.69050e-06 Reference value :  1.75150e-06 Reference value :  1.80250e-06 Reference value :  1.86850e-06
No. of Data Rows : 1914
binary raw file "tt_10_analog_bgr_ptat_tb.raw"
Note: Simulation executed from .control section 
